 .Wgn file Subbasin: 2 STATION NAME:42 5/13/2020 12:00:00 AM ArcSWAT 2012.10_5.21
  LATITUDE =  41.99 LONGITUDE =  78.13
  ELEV [m] =3901.00
  RAIN_YRS =  32.00
-11.53-10.26 -6.43 -1.34  2.72  6.49  9.32  9.24  5.00 -1.04 -5.85 -9.61
-24.58-23.98-19.41-12.78 -7.20 -2.97 -1.19 -1.41 -4.98-11.45-16.34-21.22
  3.79  3.75  3.92  4.28  3.86  3.19  3.15  3.29  3.51  3.74  3.67  3.65
  6.65  6.69  6.87  6.78  5.34  2.87  2.38  2.81  3.51  5.24  5.48  6.12
  22.0  38.1  76.3 102.5 137.5 112.0  73.7  74.9  64.5  55.8  27.8  23.5
  1.24  1.95  3.46  5.07  6.58  6.23  5.26  5.43  4.40  3.43  1.81  1.43
  2.52  2.22  2.24  2.50  2.44  2.63  4.18  3.67  3.15  3.31  2.98  2.67
  0.34  0.45  0.50  0.51  0.52  0.46  0.36  0.32  0.34  0.37  0.31  0.31
  0.35  0.39  0.43  0.42  0.43  0.40  0.36  0.36  0.38  0.37  0.34  0.31
 12.56 15.34 19.97 19.69 20.72 17.91 13.75 12.75 13.88 14.78 11.63 11.19
  3.18  5.96  8.89 14.36 19.85 14.48 17.86 16.12 10.06 10.25  4.46  3.33
  9.43 12.24 15.98 20.40 23.24 26.03 26.51 23.42 18.80 13.63 10.20  8.33
  0.78  0.80  0.83  0.80  0.74  0.69  0.64  0.62  0.63  0.74  0.77  0.78
  3.00  2.96  3.12  3.09  2.90  2.81  2.74  2.63  2.60  2.68  2.99  2.96
