 .Wgn file Subbasin: 13 STATION NAME:30 5/13/2020 12:00:00 AM ArcSWAT 2012.10_5.21
  LATITUDE =  41.68 LONGITUDE =  77.81
  ELEV [m] =3323.00
  RAIN_YRS =  32.00
-13.08-11.71 -8.05 -3.30  0.91  5.03  8.12  8.10  3.66 -2.70 -7.60-11.22
-26.53-25.28-20.82-15.24 -8.79 -3.29 -0.90 -1.13 -5.10-12.67-18.55-23.34
  3.70  3.67  3.69  4.01  3.69  3.32  3.25  3.27  3.53  3.73  3.59  3.50
  7.31  7.47  7.24  7.62  5.99  3.49  2.22  2.74  3.72  5.99  5.77  6.59
  35.5  58.8 114.2 156.4 209.4 184.9 134.1 130.2 111.1  93.5  45.7  38.1
  1.69  2.46  4.12  6.06  7.93  7.58  6.60  7.15  5.90  4.70  2.33  1.92
  2.36  1.66  1.66  1.87  2.02  2.02  2.73  2.74  2.69  2.83  2.37  2.08
  0.45  0.56  0.66  0.63  0.69  0.62  0.48  0.43  0.42  0.46  0.39  0.39
  0.38  0.41  0.45  0.45  0.46  0.45  0.41  0.40  0.43  0.42  0.38  0.34
 16.03 19.31 24.31 23.88 25.47 23.03 19.84 17.72 17.72 18.88 15.69 14.47
  4.98  5.13  8.72 12.86 22.70 19.95 20.58 17.68 14.98 14.30  6.19  4.12
  9.53 12.44 16.37 20.51 22.63 24.97 25.33 22.41 18.44 13.47 10.19  8.46
  0.77  0.80  0.84  0.85  0.79  0.72  0.65  0.61  0.64  0.76  0.79  0.78
  3.62  3.65  3.82  3.80  3.45  3.32  3.23  3.17  3.39  3.46  3.69  3.62
