 .Wgn file Subbasin: 17 STATION NAME:29 5/13/2020 12:00:00 AM ArcSWAT 2012.10_5.21
  LATITUDE =  41.68 LONGITUDE =  77.50
  ELEV [m] =4132.00
  RAIN_YRS =  32.00
-12.49-11.08 -7.30 -2.49  1.56  5.80  8.82  8.90  4.52 -2.07 -7.04-10.65
-25.21-24.26-20.04-13.84 -7.42 -2.14 -0.03 -0.16 -3.92-12.00-17.98-22.23
  3.82  3.75  3.80  4.11  3.78  3.42  3.32  3.31  3.57  3.79  3.66  3.63
  6.84  7.07  6.85  7.24  5.88  3.19  2.47  2.89  3.64  6.25  5.87  6.30
  24.1  40.7  86.2 123.6 164.7 139.7  99.7  93.7  73.1  64.3  33.3  28.0
  1.42  2.04  3.57  5.29  7.05  6.53  5.85  5.95  4.76  3.77  1.99  1.65
  3.01  1.88  1.85  1.93  2.30  2.13  3.46  3.09  3.34  3.31  2.59  2.66
  0.33  0.45  0.56  0.53  0.59  0.51  0.42  0.36  0.37  0.37  0.35  0.33
  0.36  0.39  0.41  0.44  0.44  0.42  0.39  0.37  0.37  0.37  0.34  0.33
 12.41 15.50 20.63 20.69 22.81 19.88 16.56 14.56 14.59 15.16 12.44 11.91
  4.51  4.38  8.20 11.64 20.88 14.97 21.13 16.69 13.64 12.66  5.13  4.90
  9.98 13.19 17.42 21.87 24.35 26.87 26.73 23.71 19.51 14.34 10.69  8.82
  0.73  0.75  0.80  0.80  0.75  0.68  0.62  0.57  0.57  0.71  0.75  0.75
  4.27  4.25  4.28  4.16  3.76  3.59  3.52  3.52  3.81  3.86  4.18  4.24
