 .Wgn file Subbasin: 12 STATION NAME:28 5/13/2020 12:00:00 AM ArcSWAT 2012.10_5.21
  LATITUDE =  41.68 LONGITUDE =  77.19
  ELEV [m] =3969.00
  RAIN_YRS =  32.00
-11.80-10.27 -6.33 -1.30  2.87  7.16 10.09 10.24  5.89 -0.99 -6.25 -9.99
-22.71-21.90-17.49-11.06 -5.45 -0.97  1.07  0.98 -2.68-10.10-15.73-19.87
  3.83  3.77  3.86  4.24  4.04  3.54  3.45  3.33  3.67  3.91  3.69  3.68
  6.01  6.19  6.16  6.15  4.91  2.87  2.35  2.71  3.32  5.52  5.17  5.47
  19.7  32.4  73.7 110.7 147.5 123.1  92.4  79.1  59.9  52.2  30.5  24.6
  1.32  1.81  3.25  4.92  6.55  5.97  5.71  5.15  4.17  3.27  2.03  1.69
  3.39  2.14  2.00  1.97  2.26  2.16  3.62  3.05  3.46  3.48  3.20  3.87
  0.29  0.41  0.47  0.52  0.56  0.48  0.38  0.34  0.34  0.33  0.27  0.27
  0.34  0.35  0.42  0.43  0.44  0.42  0.38  0.38  0.34  0.36  0.36  0.33
 10.56 13.41 18.88 19.88 21.69 19.00 15.56 13.75 12.81 13.56 11.09 10.34
  4.20  3.98  7.65 11.99 17.20 14.90 20.29 15.03 12.23 10.52  6.59  6.73
 10.10 13.41 17.66 22.08 24.74 27.51 27.08 24.30 19.97 14.61 10.77  8.87
  0.72  0.75  0.78  0.77  0.73  0.66  0.60  0.54  0.54  0.69  0.73  0.74
  4.94  4.82  4.67  4.41  3.89  3.65  3.60  3.65  4.07  4.26  4.74  4.93
