 .Wgn file Subbasin: 20 STATION NAME:16 5/13/2020 12:00:00 AM ArcSWAT 2012.10_5.21
  LATITUDE =  41.37 LONGITUDE =  76.88
  ELEV [m] =3646.00
  RAIN_YRS =  32.00
-11.33 -9.73 -5.75 -0.17  4.42  8.98 12.17 12.46  7.68  0.16 -5.58 -9.54
-25.97-24.76-19.97-12.20 -6.10 -1.60  0.43  0.52 -3.42-11.03-17.57-23.04
  3.78  3.71  3.81  4.51  4.26  3.77  3.88  3.45  3.84  4.22  3.88  3.68
  7.18  7.20  7.09  6.73  5.18  2.85  2.64  2.84  3.44  5.72  6.07  6.89
   9.1  17.4  43.7  65.3  85.9  65.1  46.1  46.0  34.9  29.5  13.4  12.8
  0.76  1.14  2.20  3.46  4.66  3.98  3.62  3.59  2.94  2.19  1.17  1.13
  3.93  2.69  2.45  2.71  3.05  3.22  5.85  3.59  4.51  4.62  5.21  5.44
  0.19  0.32  0.42  0.48  0.50  0.41  0.33  0.24  0.25  0.27  0.22  0.19
  0.25  0.30  0.39  0.40  0.39  0.38  0.34  0.34  0.32  0.34  0.24  0.28
  6.50 10.09 16.06 17.72 18.16 15.38 12.59 10.13  9.84 10.78  7.22  7.09
  2.34  3.28  6.02  9.00 15.44 12.82 17.41  9.59 10.28  9.57  4.88  5.15
 10.52 14.02 18.54 22.97 25.68 28.28 27.66 25.04 20.48 15.08 11.27  9.29
  0.76  0.78  0.82  0.77  0.70  0.62  0.54  0.48  0.50  0.69  0.76  0.77
  4.11  4.23  4.37  4.41  4.15  4.03  4.02  4.07  4.35  4.15  4.09  4.01
