 .Wgn file Subbasin: 7 STATION NAME:38 5/13/2020 12:00:00 AM ArcSWAT 2012.10_5.21
  LATITUDE =  41.99 LONGITUDE =  76.88
  ELEV [m] =3295.00
  RAIN_YRS =  32.00
 -6.75 -5.15 -1.09  4.46  8.45 12.55 15.01 15.23 11.39  4.67 -1.01 -5.01
-16.11-14.88 -9.74 -3.41  0.49  4.06  6.02  5.93  2.19 -3.16 -8.89-13.55
  3.59  3.56  3.79  4.47  4.24  3.38  3.25  3.24  3.54  3.95  3.44  3.45
  4.87  4.77  4.77  4.18  3.24  2.38  2.14  2.30  2.57  3.49  4.69  4.47
  10.8  18.9  49.8  80.2 105.1  75.0  60.3  44.5  33.3  30.6  22.1  14.7
  1.01  1.49  2.81  4.54  5.54  4.52  4.79  3.21  2.92  2.40  1.93  1.45
  4.24  3.48  2.98  2.48  2.31  2.84  4.30  3.33  5.16  3.49  4.15  6.01
  0.17  0.26  0.33  0.38  0.40  0.39  0.30  0.23  0.21  0.22  0.18  0.16
  0.25  0.29  0.37  0.40  0.40  0.37  0.34  0.37  0.33  0.33  0.31  0.29
  5.91  8.63 14.47 15.59 16.75 14.84 11.81 10.22  8.88  8.84  7.41  6.31
  3.49  4.49 10.07 10.12 12.67 10.82 14.60  8.69 14.02  7.17  6.27  7.55
  9.92 13.14 17.31 21.62 24.72 27.86 27.31 24.59 20.05 14.54 10.44  8.63
  0.69  0.72  0.72  0.66  0.64  0.57  0.53  0.48  0.46  0.57  0.67  0.70
  4.44  4.10  3.83  3.61  3.26  3.14  3.07  3.11  3.19  3.47  4.16  4.49
