 .Wgn file Subbasin: 3 STATION NAME:39 5/13/2020 12:00:00 AM ArcSWAT 2012.10_5.21
  LATITUDE =  41.99 LONGITUDE =  77.19
  ELEV [m] =3529.00
  RAIN_YRS =  32.00
 -6.63 -5.23 -1.23  4.17  8.01 11.89 14.29 14.46 10.71  4.37 -0.94 -4.76
-16.74-15.55-10.13 -3.54  0.28  3.77  5.72  5.57  1.80 -3.58 -9.17-13.96
  3.70  3.64  3.91  4.45  4.12  3.27  3.09  3.17  3.46  3.86  3.48  3.54
  5.42  5.24  5.15  4.33  3.37  2.37  2.17  2.37  2.62  3.63  5.00  4.85
   6.0  11.8  31.4  47.1  61.0  32.8  28.6  21.6  16.8  17.3  11.7   8.4
  0.67  1.11  2.08  3.09  4.15  2.69  3.22  2.07  1.88  1.63  1.22  0.93
  5.14  3.90  3.47  2.84  3.28  3.83  6.51  4.40  5.40  3.95  4.60  6.71
  0.11  0.17  0.26  0.31  0.32  0.24  0.17  0.16  0.14  0.14  0.13  0.12
  0.21  0.26  0.36  0.34  0.35  0.32  0.29  0.31  0.28  0.29  0.28  0.21
  3.94  6.00 10.88 11.81 12.34  8.97  6.81  6.50  5.19  5.72  5.06  4.38
  2.57  3.11  7.14  8.11 11.71  8.49 14.02  6.20  8.45  4.23  4.29  5.24
 10.15 13.47 17.88 22.61 25.96 29.13 28.51 25.33 20.45 14.91 10.78  8.86
  0.67  0.69  0.70  0.63  0.61  0.55  0.52  0.47  0.45  0.56  0.64  0.67
  3.87  3.64  3.52  3.43  3.16  3.09  3.09  3.14  3.13  3.21  3.67  3.92
