 .Wgn file Subbasin: 5 STATION NAME:27 5/13/2020 12:00:00 AM ArcSWAT 2012.10_5.21
  LATITUDE =  41.68 LONGITUDE =  76.88
  ELEV [m] =2950.00
  RAIN_YRS =  32.00
-11.02 -9.35 -5.34 -0.02  4.36  8.85 11.75 12.03  7.65  0.39 -5.30 -9.27
-21.30-20.37-16.08 -9.14 -3.93  0.16  2.25  2.24 -1.47 -8.23-14.08-18.59
  3.82  3.74  3.78  4.34  4.24  3.65  3.62  3.34  3.75  4.09  3.77  3.70
  5.40  5.48  5.56  5.28  4.10  2.58  2.23  2.45  3.04  4.64  4.78  4.94
  17.6  28.2  67.1 106.1 140.6 121.5  93.2  70.2  51.6  45.2  30.7  23.5
  1.31  1.72  3.16  4.94  6.26  5.98  5.83  4.52  3.70  2.98  2.22  1.89
  3.59  2.49  2.25  2.13  2.10  2.28  3.39  2.87  3.44  3.29  3.71  5.14
  0.26  0.37  0.44  0.51  0.55  0.47  0.41  0.32  0.28  0.32  0.27  0.24
  0.28  0.34  0.40  0.42  0.42  0.43  0.38  0.36  0.34  0.34  0.35  0.31
  8.94 12.19 17.63 19.31 21.25 19.25 15.59 13.31 11.66 12.38 10.59  9.31
  3.66  3.68  9.13 11.38 15.48 14.76 18.60 11.48 10.52  9.21  7.90  8.47
 10.20 13.58 17.94 22.23 24.93 27.67 27.08 24.60 20.20 14.76 10.79  8.93
  0.74  0.76  0.80  0.76  0.72  0.64  0.57  0.51  0.51  0.67  0.74  0.75
  5.49  5.28  5.03  4.66  4.04  3.76  3.71  3.76  4.34  4.67  5.24  5.46
