 .Sol file Watershed HRU:115 Subbasin:17 HRU:2 Luse:GRAS Soil: I-K-U-2c-3723 Slope: 0-11 5/13/2020 12:00:00 AM ArcSWAT 2012.10_5.21
 Soil Name: I-K-U-2c-3723
 Soil Hydrologic Group: C
 Maximum rooting depth(mm) :  350.00
 Porosity fraction from which anions are excluded: 0.500
 Crack volume potential of soil: 0.500
 Texture 1                : LOAM
 Depth                [mm]:      300.00     1000.00
 Bulk Density Moist [g/cc]:        1.20        1.30
 Ave. AW Incl. Rock Frag  :        0.06        0.06
 Ksat. (est.)      [mm/hr]:       14.38        7.68
 Organic Carbon [weight %]:        1.60        1.20
 Clay           [weight %]:       26.00       30.00
 Silt           [weight %]:       28.00       29.00
 Sand           [weight %]:       46.00       41.00
 Rock Fragments   [vol. %]:        0.00        0.00
 Soil Albedo (Moist)      :        0.02        0.04
 Erosion K                :        0.24        0.24
 Salinity (EC, Form 5)    :        0.00        0.00
 Soil pH                  :        0.00        0.00
 Soil CACO3               :        0.00        0.00
                              
