 .Sol file Watershed HRU:113 Subbasin:16 HRU:8 Luse:WATR Soil: I-Y-2c-3733 Slope: 11-9999 5/13/2020 12:00:00 AM ArcSWAT 2012.10_5.21
 Soil Name: I-Y-2c-3733
 Soil Hydrologic Group: D
 Maximum rooting depth(mm) :  360.00
 Porosity fraction from which anions are excluded: 0.500
 Crack volume potential of soil: 0.500
 Texture 1                : LOAM
 Depth                [mm]:      300.00     1000.00
 Bulk Density Moist [g/cc]:        1.40        1.50
 Ave. AW Incl. Rock Frag  :        0.07        0.07
 Ksat. (est.)      [mm/hr]:        4.91        2.48
 Organic Carbon [weight %]:        0.70        0.40
 Clay           [weight %]:       23.00       30.00
 Silt           [weight %]:       39.00       36.00
 Sand           [weight %]:       38.00       33.00
 Rock Fragments   [vol. %]:        0.00        0.00
 Soil Albedo (Moist)      :        0.12        0.22
 Erosion K                :        0.30        0.30
 Salinity (EC, Form 5)    :        0.00        0.00
 Soil pH                  :        0.00        0.00
 Soil CACO3               :        0.00        0.00
                              
