 .Wgn file Subbasin: 15 STATION NAME:31 5/13/2020 12:00:00 AM ArcSWAT 2012.10_5.21
  LATITUDE =  41.68 LONGITUDE =  78.13
  ELEV [m] =3714.00
  RAIN_YRS =  32.00
-13.18-11.70 -8.02 -3.23  1.16  5.40  8.65  8.32  3.70 -2.58 -7.54-11.34
-25.94-24.24-19.63-14.27 -8.39 -3.47 -1.03 -1.33 -5.33-12.04-17.79-22.80
  3.51  3.48  3.52  3.87  3.64  3.41  3.37  3.41  3.54  3.66  3.51  3.31
  6.39  6.49  6.18  6.46  5.04  3.15  2.09  2.54  3.40  5.21  5.24  6.07
  49.6  82.3 150.3 197.1 265.1 251.0 190.0 192.3 167.5 134.5  61.9  50.1
  1.99  2.83  4.65  6.82  8.91  8.88  7.82  8.59  7.24  5.77  2.85  2.30
  1.92  1.53  1.39  1.73  1.74  1.72  2.28  2.19  2.01  2.30  2.56  1.92
  0.51  0.69  0.82  0.71  0.80  0.68  0.56  0.54  0.53  0.52  0.47  0.46
  0.41  0.46  0.47  0.47  0.47  0.47  0.45  0.44  0.45  0.45  0.41  0.40
 19.44 23.66 26.97 26.50 27.38 25.84 23.63 22.47 21.81 22.59 18.78 17.00
  5.65  6.42  8.54 14.54 22.97 22.33 22.21 22.09 16.24 14.58  9.68  5.24
  9.02 11.57 15.14 19.15 21.10 23.26 23.83 21.00 17.39 12.70  9.73  8.08
  0.81  0.84  0.88  0.88  0.81  0.74  0.67  0.66  0.69  0.79  0.82  0.82
  3.09  3.12  3.37  3.42  3.12  2.97  2.84  2.75  2.93  3.07  3.27  3.12
