 .sub file Subbasin: 22 5/13/2020 12:00:00 AM ArcSWAT 2012.10_5.21
      873.622391    | SUB_KM : Subbasin area [km2]

Climate in subbasin
       41.470885    | LATITUDE : Latitude of subbasin [degrees]
         2819.05    | ELEV : Elevation of subbasin [m]
              22    | IRGAGE: precip gage data used in subbasin
               0    | ITGAGE: temp gage data used in subbasin
               0    | ISGAGE: solar radiation gage data used in subbasin
               0    | IHGAGE: relative humidity gage data used in subbasin
               0    | IWGAGE: wind speed gage data used in subbasin
000220000.wgn       | WGNFILE: name of weather generator data file
               1    | FCST_REG: Region number used to assign forecast data to the subbasin
Elevation Bands
| ELEVB: Elevation at center of elevation bands [m]
   0.000   0.000   0.000   0.000   0.000   0.000   0.000   0.000   0.000   0.000
| ELEVB_FR: Fraction of subbasin area within elevation band
   0.000   0.000   0.000   0.000   0.000   0.000   0.000   0.000   0.000   0.000
| SNOEB: Initial snow water content in elevation band [mm]
     0.0     0.0     0.0     0.0     0.0     0.0     0.0     0.0     0.0     0.0
           0.000    | PLAPS : Precipitation lapse rate [mm/km]
           0.000    | TLAPS : Temperature lapse rate [°C/km]
           0.000    | SNO_SUB : Initial snow water content [mm]
Tributary Channels
          59.129    | CH_L1 : Longest tributary channel length [km]
           0.033    | CH_S1 : Average slope of tributary channel [m/m]
          75.056    | CH_W1 : Average width of tributary channel [m]
           0.000    | CH_K1 : Effective hydraulic conductivity in tributary channel [mm/hr]
           0.014    | CH_N1 : Manning's "n" value for the tributary channels
Impoundments
000220000.pnd       | PNDFILE: name of subbasin impoundment file
Consumptive Water Use
000220000.wus       | WUSFILE: name of subbasin water use file
Climate Change
         330.000    | CO2 : Carbon dioxide concentration [ppmv]
| RFINC:  Climate change monthly rainfall adjustment (January - June)
   0.000   0.000   0.000   0.000   0.000   0.000
| RFINC:  Climate change monthly rainfall adjustment (July - December)
   0.000   0.000   0.000   0.000   0.000   0.000
| TMPINC: Climate change monthly temperature adjustment (January - June)
   0.000   0.000   0.000   0.000   0.000   0.000
| TMPINC: Climate change monthly temperature adjustment (July - December)
   0.000   0.000   0.000   0.000   0.000   0.000
| RADINC: Climate change monthly radiation adjustment (January - June)
   0.000   0.000   0.000   0.000   0.000   0.000
| RADINC: Climate change monthly radiation adjustment (July - December)
   0.000   0.000   0.000   0.000   0.000   0.000
| HUMINC: Climate change monthly humidity adjustment (January - June)
   0.000   0.000   0.000   0.000   0.000   0.000
| HUMINC: Climate change monthly humidity adjustment (July - December)
   0.000   0.000   0.000   0.000   0.000   0.000
| HRU data
               4    | HRUTOT : Total number of HRUs modeled in subbasin

HRU: Depressional Storage/Pothole

Floodplain

HRU: Riparian

HRU: General
000220001.hru000220001.mgt000220001.sol000220001.chm 000220001.gw             000220001.sep
000220002.hru000220002.mgt000220002.sol000220002.chm 000220002.gw             000220002.sep
000220003.hru000220003.mgt000220003.sol000220003.chm 000220003.gw             000220003.sep
000220004.hru000220004.mgt000220004.sol000220004.chm 000220004.gw             000220004.sep
