 .Wgn file Subbasin: 21 STATION NAME:17 5/13/2020 12:00:00 AM ArcSWAT 2012.10_5.21
  LATITUDE =  41.37 LONGITUDE =  77.19
  ELEV [m] =3890.00
  RAIN_YRS =  32.00
-12.55-10.99 -7.03 -1.87  2.58  7.08 10.30 10.50  5.72 -1.60 -6.96-10.75
-27.44-26.41-21.61-14.72 -8.16 -2.78 -0.70 -0.62 -4.74-13.28-19.50-24.61
  3.70  3.65  3.82  4.27  4.05  3.66  3.69  3.37  3.73  4.04  3.75  3.57
  7.75  7.94  7.87  7.61  6.00  3.27  2.71  2.89  3.75  6.59  6.37  7.36
  13.2  25.9  59.2  89.3 116.6  97.0  69.6  70.9  56.3  45.2  18.3  16.5
  0.92  1.45  2.61  4.06  5.45  4.99  4.44  4.74  3.94  2.86  1.32  1.17
  3.39  2.35  2.10  2.21  2.56  2.56  4.35  3.17  3.87  3.51  3.85  3.53
  0.27  0.38  0.54  0.55  0.62  0.46  0.37  0.30  0.32  0.36  0.26  0.25
  0.28  0.37  0.40  0.44  0.42  0.42  0.39  0.38  0.37  0.35  0.30  0.30
  9.06 13.13 19.31 20.63 21.59 18.66 15.38 12.97 13.13 13.78  9.34  9.16
  2.72  4.05  7.17  8.93 14.98 14.18 19.27 12.31 13.25  9.66  4.71  4.13
 10.33 13.72 18.08 22.54 25.11 27.54 27.08 24.30 20.01 14.78 11.09  9.15
  0.75  0.77  0.81  0.79  0.74  0.65  0.57  0.52  0.54  0.73  0.76  0.76
  4.24  4.42  4.61  4.61  4.36  4.25  4.20  4.21  4.47  4.27  4.28  4.16
