 .Wgn file Subbasin: 1 STATION NAME:41 5/13/2020 12:00:00 AM ArcSWAT 2012.10_5.21
  LATITUDE =  41.99 LONGITUDE =  77.81
  ELEV [m] =3119.00
  RAIN_YRS =  32.00
 -9.35 -8.18 -4.32  0.81  4.75  8.47 11.12 11.17  7.11  1.05 -3.72 -7.40
-21.89-21.40-16.42 -9.32 -4.23 -0.41  1.41  1.18 -2.40 -8.74-13.90-18.84
  3.86  3.75  3.97  4.37  3.98  3.21  3.07  3.21  3.48  3.75  3.64  3.72
  6.35  6.31  6.47  6.28  4.83  2.64  2.28  2.74  3.28  5.02  5.40  5.72
   9.8  19.9  43.5  57.0  78.0  49.4  35.7  34.2  26.2  25.1  14.1  11.9
  0.85  1.41  2.61  3.63  5.11  3.73  3.80  3.40  2.69  2.21  1.25  1.00
  3.84  2.90  3.13  3.31  3.53  3.49  6.82  4.82  4.59  4.64  3.91  3.59
  0.19  0.26  0.33  0.35  0.39  0.30  0.20  0.17  0.17  0.21  0.18  0.19
  0.22  0.33  0.35  0.38  0.35  0.32  0.29  0.30  0.25  0.28  0.27  0.25
  6.28  9.13 13.22 13.34 14.63 11.13  7.97  6.97  6.50  8.25  6.47  6.47
  2.83  4.58  7.66 12.73 17.81 10.32 17.32 11.14  8.95  8.20  3.84  2.86
  9.88 12.94 17.00 21.64 24.74 27.71 27.81 24.55 19.71 14.34 10.61  8.69
  0.73  0.75  0.77  0.72  0.68  0.62  0.58  0.55  0.55  0.67  0.71  0.74
  3.12  3.07  3.10  2.98  2.71  2.52  2.50  2.49  2.54  2.66  2.98  3.08
