 .Sol file Watershed HRU:8 Subbasin:2 HRU:3 Luse:BARR Soil: GLACIER-6998 Slope: 11-9999 5/13/2020 12:00:00 AM ArcSWAT 2012.10_5.21
 Soil Name: GLACIER-6998
 Soil Hydrologic Group: D
 Maximum rooting depth(mm) : 1524.00
 Porosity fraction from which anions are excluded: 0.500
 Crack volume potential of soil: 0.500
 Texture 1                : UWB
 Depth                [mm]:     1524.00
 Bulk Density Moist [g/cc]:        2.50
 Ave. AW Incl. Rock Frag  :        0.01
 Ksat. (est.)      [mm/hr]:       99.00
 Organic Carbon [weight %]:        0.00
 Clay           [weight %]:        5.00
 Silt           [weight %]:       25.00
 Sand           [weight %]:       70.00
 Rock Fragments   [vol. %]:       98.00
 Soil Albedo (Moist)      :        0.23
 Erosion K                :        0.01
 Salinity (EC, Form 5)    :        0.00
 Soil pH                  :        0.00
 Soil CACO3               :        0.00
                              
