 .Sol file Watershed HRU:46 Subbasin:7 HRU:4 Luse:GRAS Soil: I-Bh-2c-3094 Slope: 0-11 5/13/2020 12:00:00 AM ArcSWAT 2012.10_5.21
 Soil Name: I-Bh-2c-3094
 Soil Hydrologic Group: C
 Maximum rooting depth(mm) :  360.00
 Porosity fraction from which anions are excluded: 0.500
 Crack volume potential of soil: 0.500
 Texture 1                : LOAM
 Depth                [mm]:      300.00     1000.00
 Bulk Density Moist [g/cc]:        1.10        1.30
 Ave. AW Incl. Rock Frag  :        0.07        0.07
 Ksat. (est.)      [mm/hr]:       23.35        7.38
 Organic Carbon [weight %]:        3.10        1.50
 Clay           [weight %]:       24.00       29.00
 Silt           [weight %]:       41.00       31.00
 Sand           [weight %]:       36.00       40.00
 Rock Fragments   [vol. %]:        0.00        0.00
 Soil Albedo (Moist)      :        0.00        0.02
 Erosion K                :        0.25        0.25
 Salinity (EC, Form 5)    :        0.00        0.00
 Soil pH                  :        0.00        0.00
 Soil CACO3               :        0.00        0.00
                              
