 .Sol file Watershed HRU:29 Subbasin:3 HRU:6 Luse:GRAS Soil: I-K-2c-3722 Slope: 0-11 5/13/2020 12:00:00 AM ArcSWAT 2012.10_5.21
 Soil Name: I-K-2c-3722
 Soil Hydrologic Group: C
 Maximum rooting depth(mm) :  360.00
 Porosity fraction from which anions are excluded: 0.500
 Crack volume potential of soil: 0.500
 Texture 1                : LOAM
 Depth                [mm]:      300.00     1000.00
 Bulk Density Moist [g/cc]:        1.30        1.40
 Ave. AW Incl. Rock Frag  :        0.07        0.07
 Ksat. (est.)      [mm/hr]:        8.78        4.38
 Organic Carbon [weight %]:        1.30        0.80
 Clay           [weight %]:       23.00       28.00
 Silt           [weight %]:       34.00       35.00
 Sand           [weight %]:       44.00       38.00
 Rock Fragments   [vol. %]:        0.00        0.00
 Soil Albedo (Moist)      :        0.03        0.10
 Erosion K                :        0.26        0.26
 Salinity (EC, Form 5)    :        0.00        0.00
 Soil pH                  :        0.00        0.00
 Soil CACO3               :        0.00        0.00
                              
