 .Wgn file Subbasin: 10 STATION NAME:26 5/13/2020 12:00:00 AM ArcSWAT 2012.10_5.21
  LATITUDE =  41.68 LONGITUDE =  76.56
  ELEV [m] =2660.00
  RAIN_YRS =  32.00
-10.07 -8.26 -4.23  1.47  6.12 10.80 13.66 14.04  9.62  1.94 -4.22 -8.38
-20.31-19.33-14.81 -7.51 -2.58  1.35  3.46  3.56 -0.36 -6.73-12.86-17.71
  3.80  3.69  3.65  4.48  4.42  3.74  3.80  3.43  3.79  4.29  3.81  3.70
  5.13  5.16  5.20  4.90  3.62  2.44  2.28  2.42  2.95  4.18  4.72  4.82
  16.7  24.7  61.2 100.5 131.5 120.0  92.5  59.1  42.4  38.4  30.9  23.2
  1.36  1.67  3.11  5.01  5.99  6.10  5.95  3.90  3.28  2.72  2.40  2.11
  4.03  2.92  2.58  2.36  2.01  2.46  3.25  2.90  3.96  3.34  3.96  5.88
  0.23  0.32  0.40  0.48  0.51  0.51  0.36  0.28  0.25  0.26  0.26  0.23
  0.27  0.34  0.40  0.41  0.44  0.41  0.38  0.37  0.36  0.33  0.32  0.29
  7.88 10.91 16.53 18.16 20.31 19.03 15.34 12.22 10.50 10.53  9.78  8.63
  4.72  4.14  9.69 12.10 12.90 17.22 16.16  8.86 11.55  7.45  8.45  9.63
 10.24 13.65 18.02 22.17 24.96 27.58 27.07 24.79 20.40 14.85 10.76  8.94
  0.76  0.78  0.82  0.76  0.70  0.61  0.54  0.48  0.47  0.65  0.75  0.77
  5.66  5.45  5.20  4.82  4.20  3.93  3.86  3.86  4.53  4.91  5.43  5.61
