 .Wgn file Subbasin: 16 STATION NAME:18 5/13/2020 12:00:00 AM ArcSWAT 2012.10_5.21
  LATITUDE =  41.37 LONGITUDE =  77.50
  ELEV [m] =4418.00
  RAIN_YRS =  32.00
-12.80-11.29 -7.44 -2.46  2.07  6.43  9.60  9.60  4.85 -2.19 -7.30-11.02
-27.13-26.06-21.44-14.91 -8.16 -2.86 -0.80 -0.87 -5.09-13.38-19.35-24.08
  3.59  3.54  3.67  4.10  3.89  3.41  3.41  3.31  3.59  3.83  3.61  3.43
  7.20  7.35  7.33  7.19  5.56  2.95  2.46  2.65  3.68  6.21  5.80  6.51
  18.3  36.6  78.3 112.7 149.4 134.4  98.5 100.3  81.4  63.2  24.0  20.4
  1.12  1.81  3.16  4.79  6.46  6.20  5.38  5.88  4.91  3.54  1.55  1.25
  3.16  2.18  1.89  2.04  2.31  2.39  3.31  2.73  3.35  2.88  3.51  2.64
  0.31  0.49  0.62  0.60  0.62  0.54  0.45  0.38  0.36  0.41  0.30  0.29
  0.33  0.40  0.43  0.43  0.44  0.43  0.41  0.37  0.39  0.38  0.35  0.31
 11.25 16.16 21.88 22.38 23.19 21.28 17.78 15.53 15.22 16.31 11.47 10.75
  3.79  4.58  8.04 11.23 15.23 15.60 20.44 13.63 15.25 10.13  5.57  2.97
 10.09 13.27 17.48 21.77 24.14 26.41 26.28 23.40 19.39 14.34 10.86  8.99
  0.75  0.78  0.81  0.81  0.74  0.66  0.59  0.55  0.58  0.75  0.77  0.76
  4.16  4.35  4.62  4.60  4.31  4.16  4.06  4.02  4.30  4.22  4.28  4.11
