 .Wgn file Subbasin: 22 STATION NAME:14 5/13/2020 12:00:00 AM ArcSWAT 2012.10_5.21
  LATITUDE =  41.37 LONGITUDE =  76.25
  ELEV [m] =3811.00
  RAIN_YRS =  32.00
 -7.84 -6.18 -2.21  4.39  9.62 14.38 17.26 17.59 12.82  4.85 -1.57 -6.05
-21.82-20.51-14.58 -6.12 -1.47  2.21  4.30  4.45  0.37 -5.93-12.07-18.35
  3.89  3.72  3.69  4.93  4.73  3.82  4.12  3.55  3.87  4.57  4.18  3.84
  6.27  6.14  5.93  4.88  3.52  2.60  2.52  2.64  3.11  4.12  5.16  5.72
   4.1   6.7  18.0  27.5  34.6  20.1  15.6  12.8   8.3   8.2   6.0   7.1
  0.53  0.71  1.36  2.47  2.88  1.93  2.22  1.68  1.17  0.96  0.79  1.02
  7.43  4.15  4.11  5.06  4.42  4.49  7.58  6.31  6.62  5.57  6.66  9.10
  0.10  0.14  0.22  0.24  0.26  0.18  0.12  0.10  0.09  0.11  0.10  0.10
  0.15  0.21  0.29  0.30  0.30  0.27  0.25  0.21  0.25  0.21  0.20  0.21
  3.16  4.41  8.53  9.06  9.47  6.63  4.91  3.81  3.28  4.03  3.41  3.84
  3.02  2.33  5.40  8.57  8.27  7.08  9.45  7.29  4.58  3.93  3.27  5.52
 10.68 14.24 18.81 23.56 26.89 29.76 29.03 26.32 21.32 15.55 11.41  9.40
  0.78  0.80  0.82  0.70  0.59  0.50  0.44  0.39  0.40  0.60  0.72  0.78
  3.75  3.73  3.84  3.95  3.79  3.71  3.73  3.70  3.91  3.77  3.73  3.71
